Version 4
SHEET 1 880 680
WIRE 64 160 -176 160
WIRE 64 224 64 160
WIRE 112 224 64 224
WIRE 352 240 176 240
WIRE 112 256 64 256
WIRE -112 272 -192 272
WIRE 0 272 -112 272
WIRE 64 272 64 256
WIRE 64 272 0 272
WIRE 0 288 0 272
WIRE 144 304 144 272
WIRE -352 336 -352 288
WIRE 352 336 352 320
WIRE -192 384 -192 272
WIRE -112 384 -112 272
WIRE 64 416 64 272
WIRE 112 416 64 416
WIRE 352 432 352 416
WIRE 352 432 176 432
WIRE 112 448 64 448
WIRE -192 480 -192 464
WIRE -112 480 -112 464
WIRE 144 496 144 464
WIRE -192 592 -192 560
FLAG -352 336 0
FLAG -352 208 VCC
FLAG 144 208 VCC
FLAG 144 304 0
FLAG -192 592 0
FLAG -176 240 0
FLAG 64 528 0
FLAG 144 400 VCC
FLAG 144 496 0
FLAG 352 160 VCC
FLAG 352 320 VCC
FLAG 0 368 0
FLAG -112 480 VCC
SYMBOL Misc\\signal -192 464 R0
WINDOW 123 0 0 Left 0
WINDOW 39 0 0 Left 0
WINDOW 0 -96 23 Left 2
WINDOW 3 24 104 Invisible 2
SYMATTR InstName VJOY
SYMATTR Value SINE(2.5 2.5 1)
SYMBOL Opamps\\opamp2 144 176 R0
SYMATTR InstName U1
SYMATTR Value LM339
SYMATTR SpiceModel LM339
SYMBOL Misc\\battery -352 192 R0
WINDOW 123 0 0 Left 0
WINDOW 39 0 0 Left 0
SYMATTR InstName V2
SYMATTR Value 5
SYMBOL Opamps\\opamp2 144 368 R0
SYMATTR InstName U2
SYMATTR Value LM339
SYMATTR SpiceModel LM339
SYMBOL Misc\\battery -176 144 R0
WINDOW 123 0 0 Left 0
WINDOW 39 0 0 Left 0
WINDOW 0 36 52 Left 2
SYMATTR InstName Vsup
SYMATTR Value 3
SYMBOL Misc\\battery 64 432 R0
WINDOW 123 0 0 Left 0
WINDOW 39 0 0 Left 0
WINDOW 0 -79 59 Left 2
SYMATTR InstName Vinf
SYMATTR Value 2
SYMBOL res 368 432 R180
WINDOW 0 36 76 Left 2
WINDOW 3 36 40 Left 2
SYMATTR InstName R1
SYMATTR Value 500
SYMBOL res 336 144 R0
SYMATTR InstName R2
SYMATTR Value 500
SYMBOL res -176 480 R180
WINDOW 0 36 76 Left 2
WINDOW 3 36 40 Left 2
SYMATTR InstName R3
SYMATTR Value 1k
SYMBOL res 16 384 R180
WINDOW 0 36 76 Left 2
WINDOW 3 36 40 Left 2
SYMATTR InstName R4
SYMATTR Value 1k
SYMBOL res -128 368 R0
SYMATTR InstName R5
SYMATTR Value 1k
TEXT 152 48 Left 2 !.inc "LM339.sub"
TEXT -224 624 Left 2 !.tran 0 1 0 0.1
TEXT -984 360 Left 2 ;R3 deberia ser un preset de 10K por ejemplo,
TEXT -944 400 Left 2 ;para calibrar cuanto se extiende el Vjoy
TEXT -304 80 Left 2 ;Vsup y Vinf, presets y calibramos
