Version 4
SHEET 1 880 680
WIRE 0 80 0 64
WIRE 0 80 -64 80
WIRE -64 112 -64 80
WIRE -80 160 -176 160
WIRE -80 224 -80 160
WIRE 112 224 -80 224
WIRE 352 240 176 240
WIRE 112 256 64 256
WIRE -352 272 -400 272
WIRE -144 272 -272 272
WIRE 0 272 -64 272
WIRE 64 272 64 256
WIRE 64 272 0 272
WIRE -400 288 -400 272
WIRE 0 288 0 272
WIRE 144 304 144 272
WIRE 352 336 352 320
WIRE -144 368 -224 368
WIRE -64 368 -64 272
WIRE 64 416 64 272
WIRE 112 416 64 416
WIRE 352 432 352 416
WIRE 352 432 176 432
WIRE 112 448 0 448
WIRE 144 496 144 464
WIRE 0 512 0 448
FLAG -64 112 0
FLAG 0 -16 VCC
FLAG 144 208 VCC
FLAG 144 304 0
FLAG -400 288 0
FLAG -176 240 0
FLAG 0 592 0
FLAG 144 400 VCC
FLAG 144 496 0
FLAG 352 160 VCC
FLAG 352 320 VCC
FLAG -224 448 0
FLAG 0 368 0
SYMBOL Misc\\signal -256 272 R90
WINDOW 123 0 0 Left 0
WINDOW 39 0 0 Left 0
SYMATTR InstName V1
SYMATTR Value SINE(2.5 2.5 1)
SYMBOL Opamps\\opamp2 144 176 R0
SYMATTR InstName U1
SYMATTR Value LM339
SYMATTR SpiceModel LM339
SYMBOL Misc\\battery 0 -32 R0
WINDOW 123 0 0 Left 0
WINDOW 39 0 0 Left 0
SYMATTR InstName V2
SYMATTR Value 5
SYMBOL Opamps\\opamp2 144 368 R0
SYMATTR InstName U2
SYMATTR Value LM339
SYMATTR SpiceModel LM339
SYMBOL Misc\\battery -176 144 R0
WINDOW 123 0 0 Left 0
WINDOW 39 0 0 Left 0
SYMATTR InstName V3
SYMATTR Value 3
SYMBOL Misc\\battery 0 496 R0
WINDOW 123 0 0 Left 0
WINDOW 39 0 0 Left 0
SYMATTR InstName V4
SYMATTR Value 2
SYMBOL res 368 432 R180
WINDOW 0 36 76 Left 2
WINDOW 3 36 40 Left 2
SYMATTR InstName R1
SYMATTR Value 500
SYMBOL res 336 144 R0
SYMATTR InstName R2
SYMATTR Value 500
SYMBOL res -48 256 R90
WINDOW 0 0 56 VBottom 2
WINDOW 3 32 56 VTop 2
SYMATTR InstName R3
SYMATTR Value 1k
SYMBOL res 16 384 R180
WINDOW 0 36 76 Left 2
WINDOW 3 36 40 Left 2
SYMATTR InstName R4
SYMATTR Value 1k
SYMBOL res -160 384 R270
WINDOW 0 32 56 VTop 2
WINDOW 3 0 56 VBottom 2
SYMATTR InstName R5
SYMATTR Value 1k
SYMBOL Misc\\battery -224 352 R0
WINDOW 123 0 0 Left 0
WINDOW 39 0 0 Left 0
SYMATTR InstName V5
SYMATTR Value 5
TEXT 152 48 Left 2 !.inc "C:\\Users\\joa-m\\E3-Pong\\LM339.sub"
TEXT -226 620 Left 2 !.tran 0 1 0 0.1
